PHYSICAL_PROBLEM= NAVIER_STOKES
KIND_TURB_MODEL= SA
MATH_PROBLEM= DIRECT
RESTART_SOL= NO
MACH_NUMBER= 0.8395
AOA= 3.06
SIDESLIP_ANGLE= 0.0
INIT_OPTION= REYNOLDS
FREESTREAM_OPTION= TEMPERATURE_FS
FREESTREAM_TEMPERATURE= 288.15
REYNOLDS_NUMBER= 11.72E6
REYNOLDS_LENGTH= 0.64607
FLUID_MODEL= STANDARD_AIR
GAMMA_VALUE= 1.4
GAS_CONSTANT= 287.058
VISCOSITY_MODEL= SUTHERLAND
MU_REF= 1.716E-5
MU_T_REF= 273.15
SUTHERLAND_CONSTANT= 110.4
CONDUCTIVITY_MODEL= CONSTANT_PRANDTL
PRANDTL_LAM= 0.72
PRANDTL_TURB= 0.90
REF_ORIGIN_MOMENT_X = 0.25
REF_ORIGIN_MOMENT_Y = 0.00
REF_ORIGIN_MOMENT_Z = 0.00
REF_LENGTH= 0.64607
REF_AREA= 0
REF_DIMENSIONALIZATION= FREESTREAM_VEL_EQ_ONE
MARKER_HEATFLUX= ( Wing, 0.0 )
MARKER_FAR= ( Farfield )
MARKER_SYM= ( Symmetry )
MARKER_PLOTTING= ( Wing )
MARKER_MONITORING= ( Wing )
NUM_METHOD_GRAD= GREEN_GAUSS
CFL_NUMBER= 25.0
CFL_ADAPT= NO
CFL_ADAPT_PARAM= ( 1.5, 0.5, 25.0, 100000.0 )
RK_ALPHA_COEFF= ( 0.66667, 0.66667, 1.000000 )
EXT_ITER= 999999
LINEAR_SOLVER= FGMRES
LINEAR_SOLVER_PREC= ILU
LINEAR_SOLVER_ERROR= 1E-10
LINEAR_SOLVER_ITER= 10
MGLEVEL= 0
MGCYCLE= V_CYCLE
MG_PRE_SMOOTH= ( 1, 1, 1, 1 )
MG_POST_SMOOTH= ( 0, 0, 0, 0 )
MG_CORRECTION_SMOOTH= ( 0, 0, 0, 0 )
MG_DAMP_RESTRICTION= 0.7
MG_DAMP_PROLONGATION= 0.7
CONV_NUM_METHOD_FLOW= JST
MUSCL_FLOW= YES
SLOPE_LIMITER_FLOW= VENKATAKRISHNAN
VENKAT_LIMITER_COEFF= 0.05
JST_SENSOR_COEFF= ( 0.5, 0.02 )
TIME_DISCRE_FLOW= EULER_IMPLICIT
RELAXATION_FACTOR_FLOW= 0.95
CONV_NUM_METHOD_TURB= SCALAR_UPWIND
MUSCL_TURB= NO
SLOPE_LIMITER_TURB= VENKATAKRISHNAN
TIME_DISCRE_TURB= EULER_IMPLICIT
CONV_CRITERIA= CAUCHY
RESIDUAL_REDUCTION= 6
RESIDUAL_MINVAL= -12
STARTCONV_ITER= 10
CAUCHY_ELEMS= 100
CAUCHY_EPS= 1E-6
CAUCHY_FUNC_FLOW= DRAG
CAUCHY_FUNC_ADJFLOW= SENS_GEOMETRY
MESH_FILENAME= viscousOneraControl2.su2
MESH_FORMAT= SU2
MESH_OUT_FILENAME= mesh_out.su2
SOLUTION_FLOW_FILENAME= solution_flow.dat
SOLUTION_ADJ_FILENAME= solution_adj.dat
OUTPUT_FORMAT= TECPLOT
CONV_FILENAME= history
RESTART_FLOW_FILENAME= restart_flow.dat
RESTART_ADJ_FILENAME= restart_adj.dat
VOLUME_FLOW_FILENAME= flow
VOLUME_ADJ_FILENAME= adjoint
GRAD_OBJFUNC_FILENAME= of_grad.dat
SURFACE_FLOW_FILENAME= surface_flow
SURFACE_ADJ_FILENAME= surface_adjoint
WRT_SOL_FREQ= 250
WRT_CON_FREQ= 1
DEFINITION_DV= ( 1, 0.001 | airfoil | 0, 0.1 ); ( 1, 0.001 | airfoil | 0, 0.2 )